.include "/shared/PDK-ROOT-11242020/skywater-pdk/libraries/sky130_fd_pr/latest/models/corners/tt.spice"
.model sky130_fd_pr__res_generic_po1 R ( TC1=0 TC2=0 Rsh = 48.2 NARROW=0.0 TNOM=27 )

valpha  VREF Gnd 3.3
vbeta  VDD Gnd 3.3
vzero D0 Gnd pulse(0 1.8 0.1m 60p 60p 0.1m 0.2m)
vone  D1 Gnd pulse(0 1.8 0.2m 60p 60p 0.2m 0.4m)
vtwo  D2 Gnd pulse(0 1.8 0.4m 60p 60p 0.4m 0.8m)
vthree D3 Gnd pulse(0 1.8 0.8m 60p 60p 0.8m 1.6m)
vfour D4 Gnd pulse (0 1.8 1.6m 60p 60p 1.6m 3.2m)
vfive D5 Gnd pulse (0 1.8 3.2m 60p 60p 3.2m 6.4m)
vsix D6 Gnd pulse (0 1.8 6.4m 60p 60p 6.4m 12.8m)
vseven D7 Gnd pulse (0 1.8 12.8m 60p 60p 12.8m 25.6m)
veight D8 Gnd pulse (0 1.8 25.6m 60p 60p 25.6m 51.2m)
vnine D9 Gnd pulse (0 1.8 51.2m 60p 60p 51.2m 102.4m)
.tran 0.01m 102.4m
.control
run

plot V(Y) V(D0)

.endc
.end




* SPICE3 file created from 10good.ext - technology: sky130A

.option scale=5000u

X0 9good_0/8good_0/7good_0/Sw-1_0/li_29_719# D6 VSUBS VSUBS sky130_fd_pr__nfet_01v8 w=84 l=30
X1 9good_0/8good_0/7good_0/m1_4396_20620# 9good_0/8good_0/7good_0/Sw-1_0/li_29_719# 9good_0/8good_0/m1_8774_43264# 9good_0/8good_0/7good_0/m1_4396_20620# sky130_fd_pr__pfet_01v8 w=84 l=30
X2 9good_0/8good_0/m1_8774_43264# 9good_0/8good_0/7good_0/Sw-1_0/li_29_719# 9good_0/8good_0/7good_0/m1_8436_40544# VSUBS sky130_fd_pr__nfet_01v8 w=84 l=30
X3 9good_0/8good_0/7good_0/Sw-1_0/li_126_470# 9good_0/8good_0/7good_0/Sw-1_0/li_29_719# VSUBS VSUBS sky130_fd_pr__nfet_01v8 w=84 l=30
X4 VDD 9good_0/8good_0/7good_0/Sw-1_0/li_29_719# 9good_0/8good_0/7good_0/Sw-1_0/li_126_470# VDD sky130_fd_pr__pfet_01v8 w=84 l=30
X5 VDD D6 9good_0/8good_0/7good_0/Sw-1_0/li_29_719# VDD sky130_fd_pr__pfet_01v8 w=84 l=30
X6 9good_0/8good_0/m1_8774_43264# 9good_0/8good_0/7good_0/Sw-1_0/li_126_470# 9good_0/8good_0/7good_0/m1_8436_40544# 9good_0/8good_0/m1_8774_43264# sky130_fd_pr__pfet_01v8 w=84 l=30
X7 9good_0/8good_0/7good_0/m1_4396_20620# 9good_0/8good_0/7good_0/Sw-1_0/li_126_470# 9good_0/8good_0/m1_8774_43264# VSUBS sky130_fd_pr__nfet_01v8 w=84 l=30
X8 9good_0/8good_0/7good_0/6good_0/Sw-1_0/li_29_719# D5 VSUBS VSUBS sky130_fd_pr__nfet_01v8 w=84 l=30
X9 9good_0/8good_0/7good_0/6good_0/m1_3768_20868# 9good_0/8good_0/7good_0/6good_0/Sw-1_0/li_29_719# 9good_0/8good_0/7good_0/m1_4396_20620# 9good_0/8good_0/7good_0/6good_0/m1_3768_20868# sky130_fd_pr__pfet_01v8 w=84 l=30
X10 9good_0/8good_0/7good_0/m1_4396_20620# 9good_0/8good_0/7good_0/6good_0/Sw-1_0/li_29_719# 9good_0/8good_0/7good_0/6good_0/m1_4002_19952# VSUBS sky130_fd_pr__nfet_01v8 w=84 l=30
X11 9good_0/8good_0/7good_0/6good_0/Sw-1_0/li_126_470# 9good_0/8good_0/7good_0/6good_0/Sw-1_0/li_29_719# VSUBS VSUBS sky130_fd_pr__nfet_01v8 w=84 l=30
X12 VDD 9good_0/8good_0/7good_0/6good_0/Sw-1_0/li_29_719# 9good_0/8good_0/7good_0/6good_0/Sw-1_0/li_126_470# VDD sky130_fd_pr__pfet_01v8 w=84 l=30
X13 VDD D5 9good_0/8good_0/7good_0/6good_0/Sw-1_0/li_29_719# VDD sky130_fd_pr__pfet_01v8 w=84 l=30
X14 9good_0/8good_0/7good_0/m1_4396_20620# 9good_0/8good_0/7good_0/6good_0/Sw-1_0/li_126_470# 9good_0/8good_0/7good_0/6good_0/m1_4002_19952# 9good_0/8good_0/7good_0/m1_4396_20620# sky130_fd_pr__pfet_01v8 w=84 l=30
X15 9good_0/8good_0/7good_0/6good_0/m1_3768_20868# 9good_0/8good_0/7good_0/6good_0/Sw-1_0/li_126_470# 9good_0/8good_0/7good_0/m1_4396_20620# VSUBS sky130_fd_pr__nfet_01v8 w=84 l=30
X16 9good_0/8good_0/7good_0/6good_0/5good_0/Sw-1_0/li_29_719# D4 VSUBS VSUBS sky130_fd_pr__nfet_01v8 w=84 l=30
X17 9good_0/8good_0/7good_0/6good_0/5good_0/m1_3814_11892# 9good_0/8good_0/7good_0/6good_0/5good_0/Sw-1_0/li_29_719# 9good_0/8good_0/7good_0/6good_0/m1_4002_19952# 9good_0/8good_0/7good_0/6good_0/5good_0/m1_3814_11892# sky130_fd_pr__pfet_01v8 w=84 l=30
X18 9good_0/8good_0/7good_0/6good_0/m1_4002_19952# 9good_0/8good_0/7good_0/6good_0/5good_0/Sw-1_0/li_29_719# 9good_0/8good_0/7good_0/6good_0/5good_0/m1_4054_10970# VSUBS sky130_fd_pr__nfet_01v8 w=84 l=30
X19 9good_0/8good_0/7good_0/6good_0/5good_0/Sw-1_0/li_126_470# 9good_0/8good_0/7good_0/6good_0/5good_0/Sw-1_0/li_29_719# VSUBS VSUBS sky130_fd_pr__nfet_01v8 w=84 l=30
X20 VDD 9good_0/8good_0/7good_0/6good_0/5good_0/Sw-1_0/li_29_719# 9good_0/8good_0/7good_0/6good_0/5good_0/Sw-1_0/li_126_470# VDD sky130_fd_pr__pfet_01v8 w=84 l=30
X21 VDD D4 9good_0/8good_0/7good_0/6good_0/5good_0/Sw-1_0/li_29_719# VDD sky130_fd_pr__pfet_01v8 w=84 l=30
X22 9good_0/8good_0/7good_0/6good_0/m1_4002_19952# 9good_0/8good_0/7good_0/6good_0/5good_0/Sw-1_0/li_126_470# 9good_0/8good_0/7good_0/6good_0/5good_0/m1_4054_10970# 9good_0/8good_0/7good_0/6good_0/m1_4002_19952# sky130_fd_pr__pfet_01v8 w=84 l=30
X23 9good_0/8good_0/7good_0/6good_0/5good_0/m1_3814_11892# 9good_0/8good_0/7good_0/6good_0/5good_0/Sw-1_0/li_126_470# 9good_0/8good_0/7good_0/6good_0/m1_4002_19952# VSUBS sky130_fd_pr__nfet_01v8 w=84 l=30
X24 9good_0/8good_0/7good_0/6good_0/5good_0/4good_0/Sw-1_0/li_29_719# D3 VSUBS VSUBS sky130_fd_pr__nfet_01v8 w=84 l=30
X25 9good_0/8good_0/7good_0/6good_0/5good_0/4good_0/m1_3500_5610# 9good_0/8good_0/7good_0/6good_0/5good_0/4good_0/Sw-1_0/li_29_719# 9good_0/8good_0/7good_0/6good_0/5good_0/m1_4054_10970# 9good_0/8good_0/7good_0/6good_0/5good_0/4good_0/m1_3500_5610# sky130_fd_pr__pfet_01v8 w=84 l=30
X26 9good_0/8good_0/7good_0/6good_0/5good_0/m1_4054_10970# 9good_0/8good_0/7good_0/6good_0/5good_0/4good_0/Sw-1_0/li_29_719# 9good_0/8good_0/7good_0/6good_0/5good_0/4good_0/m1_3686_4442# VSUBS sky130_fd_pr__nfet_01v8 w=84 l=30
X27 9good_0/8good_0/7good_0/6good_0/5good_0/4good_0/Sw-1_0/li_126_470# 9good_0/8good_0/7good_0/6good_0/5good_0/4good_0/Sw-1_0/li_29_719# VSUBS VSUBS sky130_fd_pr__nfet_01v8 w=84 l=30
X28 VDD 9good_0/8good_0/7good_0/6good_0/5good_0/4good_0/Sw-1_0/li_29_719# 9good_0/8good_0/7good_0/6good_0/5good_0/4good_0/Sw-1_0/li_126_470# VDD sky130_fd_pr__pfet_01v8 w=84 l=30
X29 VDD D3 9good_0/8good_0/7good_0/6good_0/5good_0/4good_0/Sw-1_0/li_29_719# VDD sky130_fd_pr__pfet_01v8 w=84 l=30
X30 9good_0/8good_0/7good_0/6good_0/5good_0/m1_4054_10970# 9good_0/8good_0/7good_0/6good_0/5good_0/4good_0/Sw-1_0/li_126_470# 9good_0/8good_0/7good_0/6good_0/5good_0/4good_0/m1_3686_4442# 9good_0/8good_0/7good_0/6good_0/5good_0/m1_4054_10970# sky130_fd_pr__pfet_01v8 w=84 l=30
X31 9good_0/8good_0/7good_0/6good_0/5good_0/4good_0/m1_3500_5610# 9good_0/8good_0/7good_0/6good_0/5good_0/4good_0/Sw-1_0/li_126_470# 9good_0/8good_0/7good_0/6good_0/5good_0/m1_4054_10970# VSUBS sky130_fd_pr__nfet_01v8 w=84 l=30
X32 9good_0/8good_0/7good_0/6good_0/5good_0/4good_0/3good_0/Sw-1_0/li_29_719# D2 VSUBS VSUBS sky130_fd_pr__nfet_01v8 w=84 l=30
X33 9good_0/8good_0/7good_0/6good_0/5good_0/4good_0/3good_0/m1_3532_3020# 9good_0/8good_0/7good_0/6good_0/5good_0/4good_0/3good_0/Sw-1_0/li_29_719# 9good_0/8good_0/7good_0/6good_0/5good_0/4good_0/m1_3686_4442# 9good_0/8good_0/7good_0/6good_0/5good_0/4good_0/3good_0/m1_3532_3020# sky130_fd_pr__pfet_01v8 w=84 l=30
X34 9good_0/8good_0/7good_0/6good_0/5good_0/4good_0/m1_3686_4442# 9good_0/8good_0/7good_0/6good_0/5good_0/4good_0/3good_0/Sw-1_0/li_29_719# 9good_0/8good_0/7good_0/6good_0/5good_0/4good_0/3good_0/m1_3752_2110# VSUBS sky130_fd_pr__nfet_01v8 w=84 l=30
X35 9good_0/8good_0/7good_0/6good_0/5good_0/4good_0/3good_0/Sw-1_0/li_126_470# 9good_0/8good_0/7good_0/6good_0/5good_0/4good_0/3good_0/Sw-1_0/li_29_719# VSUBS VSUBS sky130_fd_pr__nfet_01v8 w=84 l=30
X36 VDD 9good_0/8good_0/7good_0/6good_0/5good_0/4good_0/3good_0/Sw-1_0/li_29_719# 9good_0/8good_0/7good_0/6good_0/5good_0/4good_0/3good_0/Sw-1_0/li_126_470# VDD sky130_fd_pr__pfet_01v8 w=84 l=30
X37 VDD D2 9good_0/8good_0/7good_0/6good_0/5good_0/4good_0/3good_0/Sw-1_0/li_29_719# VDD sky130_fd_pr__pfet_01v8 w=84 l=30
X38 9good_0/8good_0/7good_0/6good_0/5good_0/4good_0/m1_3686_4442# 9good_0/8good_0/7good_0/6good_0/5good_0/4good_0/3good_0/Sw-1_0/li_126_470# 9good_0/8good_0/7good_0/6good_0/5good_0/4good_0/3good_0/m1_3752_2110# 9good_0/8good_0/7good_0/6good_0/5good_0/4good_0/m1_3686_4442# sky130_fd_pr__pfet_01v8 w=84 l=30
X39 9good_0/8good_0/7good_0/6good_0/5good_0/4good_0/3good_0/m1_3532_3020# 9good_0/8good_0/7good_0/6good_0/5good_0/4good_0/3good_0/Sw-1_0/li_126_470# 9good_0/8good_0/7good_0/6good_0/5good_0/4good_0/m1_3686_4442# VSUBS sky130_fd_pr__nfet_01v8 w=84 l=30
X40 9good_0/8good_0/7good_0/6good_0/5good_0/4good_0/3good_0/2good_0/Sw-1_0/li_29_719# D0 VSUBS VSUBS sky130_fd_pr__nfet_01v8 w=84 l=30
X41 9good_0/8good_0/7good_0/6good_0/5good_0/4good_0/3good_0/2good_0/li_n188_700# 9good_0/8good_0/7good_0/6good_0/5good_0/4good_0/3good_0/2good_0/Sw-1_0/li_29_719# 9good_0/8good_0/7good_0/6good_0/5good_0/4good_0/3good_0/2good_0/m1_1892_666# 9good_0/8good_0/7good_0/6good_0/5good_0/4good_0/3good_0/2good_0/li_n188_700# sky130_fd_pr__pfet_01v8 w=84 l=30
X42 9good_0/8good_0/7good_0/6good_0/5good_0/4good_0/3good_0/2good_0/m1_1892_666# 9good_0/8good_0/7good_0/6good_0/5good_0/4good_0/3good_0/2good_0/Sw-1_0/li_29_719# 9good_0/8good_0/7good_0/6good_0/5good_0/4good_0/3good_0/2good_0/li_n188_368# VSUBS sky130_fd_pr__nfet_01v8 w=84 l=30
X43 9good_0/8good_0/7good_0/6good_0/5good_0/4good_0/3good_0/2good_0/Sw-1_0/li_126_470# 9good_0/8good_0/7good_0/6good_0/5good_0/4good_0/3good_0/2good_0/Sw-1_0/li_29_719# VSUBS VSUBS sky130_fd_pr__nfet_01v8 w=84 l=30
X44 VDD 9good_0/8good_0/7good_0/6good_0/5good_0/4good_0/3good_0/2good_0/Sw-1_0/li_29_719# 9good_0/8good_0/7good_0/6good_0/5good_0/4good_0/3good_0/2good_0/Sw-1_0/li_126_470# VDD sky130_fd_pr__pfet_01v8 w=84 l=30
X45 VDD D0 9good_0/8good_0/7good_0/6good_0/5good_0/4good_0/3good_0/2good_0/Sw-1_0/li_29_719# VDD sky130_fd_pr__pfet_01v8 w=84 l=30
X46 9good_0/8good_0/7good_0/6good_0/5good_0/4good_0/3good_0/2good_0/m1_1892_666# 9good_0/8good_0/7good_0/6good_0/5good_0/4good_0/3good_0/2good_0/Sw-1_0/li_126_470# 9good_0/8good_0/7good_0/6good_0/5good_0/4good_0/3good_0/2good_0/li_n188_368# 9good_0/8good_0/7good_0/6good_0/5good_0/4good_0/3good_0/2good_0/m1_1892_666# sky130_fd_pr__pfet_01v8 w=84 l=30
X47 9good_0/8good_0/7good_0/6good_0/5good_0/4good_0/3good_0/2good_0/li_n188_700# 9good_0/8good_0/7good_0/6good_0/5good_0/4good_0/3good_0/2good_0/Sw-1_0/li_126_470# 9good_0/8good_0/7good_0/6good_0/5good_0/4good_0/3good_0/2good_0/m1_1892_666# VSUBS sky130_fd_pr__nfet_01v8 w=84 l=30
X48 9good_0/8good_0/7good_0/6good_0/5good_0/4good_0/3good_0/2good_0/Sw-1_1/li_29_719# D0 VSUBS VSUBS sky130_fd_pr__nfet_01v8 w=84 l=30
X49 9good_0/8good_0/7good_0/6good_0/5good_0/4good_0/3good_0/2good_0/li_n184_n588# 9good_0/8good_0/7good_0/6good_0/5good_0/4good_0/3good_0/2good_0/Sw-1_1/li_29_719# 9good_0/8good_0/7good_0/6good_0/5good_0/4good_0/3good_0/2good_0/m1_1880_n536# 9good_0/8good_0/7good_0/6good_0/5good_0/4good_0/3good_0/2good_0/li_n184_n588# sky130_fd_pr__pfet_01v8 w=84 l=30
X50 9good_0/8good_0/7good_0/6good_0/5good_0/4good_0/3good_0/2good_0/m1_1880_n536# 9good_0/8good_0/7good_0/6good_0/5good_0/4good_0/3good_0/2good_0/Sw-1_1/li_29_719# m1_1684_72# VSUBS sky130_fd_pr__nfet_01v8 w=84 l=30
X51 9good_0/8good_0/7good_0/6good_0/5good_0/4good_0/3good_0/2good_0/Sw-1_1/li_126_470# 9good_0/8good_0/7good_0/6good_0/5good_0/4good_0/3good_0/2good_0/Sw-1_1/li_29_719# VSUBS VSUBS sky130_fd_pr__nfet_01v8 w=84 l=30
X52 VDD 9good_0/8good_0/7good_0/6good_0/5good_0/4good_0/3good_0/2good_0/Sw-1_1/li_29_719# 9good_0/8good_0/7good_0/6good_0/5good_0/4good_0/3good_0/2good_0/Sw-1_1/li_126_470# VDD sky130_fd_pr__pfet_01v8 w=84 l=30
X53 VDD D0 9good_0/8good_0/7good_0/6good_0/5good_0/4good_0/3good_0/2good_0/Sw-1_1/li_29_719# VDD sky130_fd_pr__pfet_01v8 w=84 l=30
X54 9good_0/8good_0/7good_0/6good_0/5good_0/4good_0/3good_0/2good_0/m1_1880_n536# 9good_0/8good_0/7good_0/6good_0/5good_0/4good_0/3good_0/2good_0/Sw-1_1/li_126_470# m1_1684_72# 9good_0/8good_0/7good_0/6good_0/5good_0/4good_0/3good_0/2good_0/m1_1880_n536# sky130_fd_pr__pfet_01v8 w=84 l=30
X55 9good_0/8good_0/7good_0/6good_0/5good_0/4good_0/3good_0/2good_0/li_n184_n588# 9good_0/8good_0/7good_0/6good_0/5good_0/4good_0/3good_0/2good_0/Sw-1_1/li_126_470# 9good_0/8good_0/7good_0/6good_0/5good_0/4good_0/3good_0/2good_0/m1_1880_n536# VSUBS sky130_fd_pr__nfet_01v8 w=84 l=30
X56 9good_0/8good_0/7good_0/6good_0/5good_0/4good_0/3good_0/2good_0/Sw-1_2/li_29_719# D1 VSUBS VSUBS sky130_fd_pr__nfet_01v8 w=84 l=30
X57 9good_0/8good_0/7good_0/6good_0/5good_0/4good_0/3good_0/2good_0/m1_1892_666# 9good_0/8good_0/7good_0/6good_0/5good_0/4good_0/3good_0/2good_0/Sw-1_2/li_29_719# 9good_0/8good_0/7good_0/6good_0/5good_0/4good_0/3good_0/m1_3752_2110# 9good_0/8good_0/7good_0/6good_0/5good_0/4good_0/3good_0/2good_0/m1_1892_666# sky130_fd_pr__pfet_01v8 w=84 l=30
X58 9good_0/8good_0/7good_0/6good_0/5good_0/4good_0/3good_0/m1_3752_2110# 9good_0/8good_0/7good_0/6good_0/5good_0/4good_0/3good_0/2good_0/Sw-1_2/li_29_719# 9good_0/8good_0/7good_0/6good_0/5good_0/4good_0/3good_0/2good_0/m1_1880_n536# VSUBS sky130_fd_pr__nfet_01v8 w=84 l=30
X59 9good_0/8good_0/7good_0/6good_0/5good_0/4good_0/3good_0/2good_0/Sw-1_2/li_126_470# 9good_0/8good_0/7good_0/6good_0/5good_0/4good_0/3good_0/2good_0/Sw-1_2/li_29_719# VSUBS VSUBS sky130_fd_pr__nfet_01v8 w=84 l=30
X60 VDD 9good_0/8good_0/7good_0/6good_0/5good_0/4good_0/3good_0/2good_0/Sw-1_2/li_29_719# 9good_0/8good_0/7good_0/6good_0/5good_0/4good_0/3good_0/2good_0/Sw-1_2/li_126_470# VDD sky130_fd_pr__pfet_01v8 w=84 l=30
X61 VDD D1 9good_0/8good_0/7good_0/6good_0/5good_0/4good_0/3good_0/2good_0/Sw-1_2/li_29_719# VDD sky130_fd_pr__pfet_01v8 w=84 l=30
X62 9good_0/8good_0/7good_0/6good_0/5good_0/4good_0/3good_0/m1_3752_2110# 9good_0/8good_0/7good_0/6good_0/5good_0/4good_0/3good_0/2good_0/Sw-1_2/li_126_470# 9good_0/8good_0/7good_0/6good_0/5good_0/4good_0/3good_0/2good_0/m1_1880_n536# 9good_0/8good_0/7good_0/6good_0/5good_0/4good_0/3good_0/m1_3752_2110# sky130_fd_pr__pfet_01v8 w=84 l=30
X63 9good_0/8good_0/7good_0/6good_0/5good_0/4good_0/3good_0/2good_0/m1_1892_666# 9good_0/8good_0/7good_0/6good_0/5good_0/4good_0/3good_0/2good_0/Sw-1_2/li_126_470# 9good_0/8good_0/7good_0/6good_0/5good_0/4good_0/3good_0/m1_3752_2110# VSUBS sky130_fd_pr__nfet_01v8 w=84 l=30
R0 m1_1684_72# 9good_0/8good_0/7good_0/6good_0/5good_0/4good_0/3good_0/2good_0/li_n184_n588# sky130_fd_pr__res_generic_po1 w=66 l=342
R1 9good_0/8good_0/7good_0/6good_0/5good_0/4good_0/3good_0/2good_0/li_n188_368# 9good_0/8good_0/7good_0/6good_0/5good_0/4good_0/3good_0/2good_0/li_n188_700# sky130_fd_pr__res_generic_po1 w=66 l=342
R2 9good_0/8good_0/7good_0/6good_0/5good_0/4good_0/3good_0/2good_0/li_n188_700# 9good_0/8good_0/7good_0/6good_0/5good_0/4good_0/3good_0/2good_0/li_n184_1324# sky130_fd_pr__res_generic_po1 w=66 l=342
R3 9good_0/8good_0/7good_0/6good_0/5good_0/4good_0/3good_0/2good_0/li_n184_n588# 9good_0/8good_0/7good_0/6good_0/5good_0/4good_0/3good_0/2good_0/li_n188_368# sky130_fd_pr__res_generic_po1 w=66 l=342
X64 9good_0/8good_0/7good_0/6good_0/5good_0/4good_0/3good_0/2good_1/Sw-1_0/li_29_719# D0 VSUBS VSUBS sky130_fd_pr__nfet_01v8 w=84 l=30
X65 9good_0/8good_0/7good_0/6good_0/5good_0/4good_0/3good_0/2good_1/li_n188_700# 9good_0/8good_0/7good_0/6good_0/5good_0/4good_0/3good_0/2good_1/Sw-1_0/li_29_719# 9good_0/8good_0/7good_0/6good_0/5good_0/4good_0/3good_0/2good_1/m1_1892_666# 9good_0/8good_0/7good_0/6good_0/5good_0/4good_0/3good_0/2good_1/li_n188_700# sky130_fd_pr__pfet_01v8 w=84 l=30
X66 9good_0/8good_0/7good_0/6good_0/5good_0/4good_0/3good_0/2good_1/m1_1892_666# 9good_0/8good_0/7good_0/6good_0/5good_0/4good_0/3good_0/2good_1/Sw-1_0/li_29_719# 9good_0/8good_0/7good_0/6good_0/5good_0/4good_0/3good_0/2good_1/li_n188_368# VSUBS sky130_fd_pr__nfet_01v8 w=84 l=30
X67 9good_0/8good_0/7good_0/6good_0/5good_0/4good_0/3good_0/2good_1/Sw-1_0/li_126_470# 9good_0/8good_0/7good_0/6good_0/5good_0/4good_0/3good_0/2good_1/Sw-1_0/li_29_719# VSUBS VSUBS sky130_fd_pr__nfet_01v8 w=84 l=30
X68 VDD 9good_0/8good_0/7good_0/6good_0/5good_0/4good_0/3good_0/2good_1/Sw-1_0/li_29_719# 9good_0/8good_0/7good_0/6good_0/5good_0/4good_0/3good_0/2good_1/Sw-1_0/li_126_470# VDD sky130_fd_pr__pfet_01v8 w=84 l=30
X69 VDD D0 9good_0/8good_0/7good_0/6good_0/5good_0/4good_0/3good_0/2good_1/Sw-1_0/li_29_719# VDD sky130_fd_pr__pfet_01v8 w=84 l=30
X70 9good_0/8good_0/7good_0/6good_0/5good_0/4good_0/3good_0/2good_1/m1_1892_666# 9good_0/8good_0/7good_0/6good_0/5good_0/4good_0/3good_0/2good_1/Sw-1_0/li_126_470# 9good_0/8good_0/7good_0/6good_0/5good_0/4good_0/3good_0/2good_1/li_n188_368# 9good_0/8good_0/7good_0/6good_0/5good_0/4good_0/3good_0/2good_1/m1_1892_666# sky130_fd_pr__pfet_01v8 w=84 l=30
X71 9good_0/8good_0/7good_0/6good_0/5good_0/4good_0/3good_0/2good_1/li_n188_700# 9good_0/8good_0/7good_0/6good_0/5good_0/4good_0/3good_0/2good_1/Sw-1_0/li_126_470# 9good_0/8good_0/7good_0/6good_0/5good_0/4good_0/3good_0/2good_1/m1_1892_666# VSUBS sky130_fd_pr__nfet_01v8 w=84 l=30
X72 9good_0/8good_0/7good_0/6good_0/5good_0/4good_0/3good_0/2good_1/Sw-1_1/li_29_719# D0 VSUBS VSUBS sky130_fd_pr__nfet_01v8 w=84 l=30
X73 9good_0/8good_0/7good_0/6good_0/5good_0/4good_0/3good_0/2good_1/li_n184_n588# 9good_0/8good_0/7good_0/6good_0/5good_0/4good_0/3good_0/2good_1/Sw-1_1/li_29_719# 9good_0/8good_0/7good_0/6good_0/5good_0/4good_0/3good_0/2good_1/m1_1880_n536# 9good_0/8good_0/7good_0/6good_0/5good_0/4good_0/3good_0/2good_1/li_n184_n588# sky130_fd_pr__pfet_01v8 w=84 l=30
X74 9good_0/8good_0/7good_0/6good_0/5good_0/4good_0/3good_0/2good_1/m1_1880_n536# 9good_0/8good_0/7good_0/6good_0/5good_0/4good_0/3good_0/2good_1/Sw-1_1/li_29_719# 9good_0/8good_0/7good_0/6good_0/5good_0/4good_0/3good_0/2good_0/li_n184_1324# VSUBS sky130_fd_pr__nfet_01v8 w=84 l=30
X75 9good_0/8good_0/7good_0/6good_0/5good_0/4good_0/3good_0/2good_1/Sw-1_1/li_126_470# 9good_0/8good_0/7good_0/6good_0/5good_0/4good_0/3good_0/2good_1/Sw-1_1/li_29_719# VSUBS VSUBS sky130_fd_pr__nfet_01v8 w=84 l=30
X76 VDD 9good_0/8good_0/7good_0/6good_0/5good_0/4good_0/3good_0/2good_1/Sw-1_1/li_29_719# 9good_0/8good_0/7good_0/6good_0/5good_0/4good_0/3good_0/2good_1/Sw-1_1/li_126_470# VDD sky130_fd_pr__pfet_01v8 w=84 l=30
X77 VDD D0 9good_0/8good_0/7good_0/6good_0/5good_0/4good_0/3good_0/2good_1/Sw-1_1/li_29_719# VDD sky130_fd_pr__pfet_01v8 w=84 l=30
X78 9good_0/8good_0/7good_0/6good_0/5good_0/4good_0/3good_0/2good_1/m1_1880_n536# 9good_0/8good_0/7good_0/6good_0/5good_0/4good_0/3good_0/2good_1/Sw-1_1/li_126_470# 9good_0/8good_0/7good_0/6good_0/5good_0/4good_0/3good_0/2good_0/li_n184_1324# 9good_0/8good_0/7good_0/6good_0/5good_0/4good_0/3good_0/2good_1/m1_1880_n536# sky130_fd_pr__pfet_01v8 w=84 l=30
X79 9good_0/8good_0/7good_0/6good_0/5good_0/4good_0/3good_0/2good_1/li_n184_n588# 9good_0/8good_0/7good_0/6good_0/5good_0/4good_0/3good_0/2good_1/Sw-1_1/li_126_470# 9good_0/8good_0/7good_0/6good_0/5good_0/4good_0/3good_0/2good_1/m1_1880_n536# VSUBS sky130_fd_pr__nfet_01v8 w=84 l=30
X80 9good_0/8good_0/7good_0/6good_0/5good_0/4good_0/3good_0/2good_1/Sw-1_2/li_29_719# D1 VSUBS VSUBS sky130_fd_pr__nfet_01v8 w=84 l=30
X81 9good_0/8good_0/7good_0/6good_0/5good_0/4good_0/3good_0/2good_1/m1_1892_666# 9good_0/8good_0/7good_0/6good_0/5good_0/4good_0/3good_0/2good_1/Sw-1_2/li_29_719# 9good_0/8good_0/7good_0/6good_0/5good_0/4good_0/3good_0/m1_3532_3020# 9good_0/8good_0/7good_0/6good_0/5good_0/4good_0/3good_0/2good_1/m1_1892_666# sky130_fd_pr__pfet_01v8 w=84 l=30
X82 9good_0/8good_0/7good_0/6good_0/5good_0/4good_0/3good_0/m1_3532_3020# 9good_0/8good_0/7good_0/6good_0/5good_0/4good_0/3good_0/2good_1/Sw-1_2/li_29_719# 9good_0/8good_0/7good_0/6good_0/5good_0/4good_0/3good_0/2good_1/m1_1880_n536# VSUBS sky130_fd_pr__nfet_01v8 w=84 l=30
X83 9good_0/8good_0/7good_0/6good_0/5good_0/4good_0/3good_0/2good_1/Sw-1_2/li_126_470# 9good_0/8good_0/7good_0/6good_0/5good_0/4good_0/3good_0/2good_1/Sw-1_2/li_29_719# VSUBS VSUBS sky130_fd_pr__nfet_01v8 w=84 l=30
X84 VDD 9good_0/8good_0/7good_0/6good_0/5good_0/4good_0/3good_0/2good_1/Sw-1_2/li_29_719# 9good_0/8good_0/7good_0/6good_0/5good_0/4good_0/3good_0/2good_1/Sw-1_2/li_126_470# VDD sky130_fd_pr__pfet_01v8 w=84 l=30
X85 VDD D1 9good_0/8good_0/7good_0/6good_0/5good_0/4good_0/3good_0/2good_1/Sw-1_2/li_29_719# VDD sky130_fd_pr__pfet_01v8 w=84 l=30
X86 9good_0/8good_0/7good_0/6good_0/5good_0/4good_0/3good_0/m1_3532_3020# 9good_0/8good_0/7good_0/6good_0/5good_0/4good_0/3good_0/2good_1/Sw-1_2/li_126_470# 9good_0/8good_0/7good_0/6good_0/5good_0/4good_0/3good_0/2good_1/m1_1880_n536# 9good_0/8good_0/7good_0/6good_0/5good_0/4good_0/3good_0/m1_3532_3020# sky130_fd_pr__pfet_01v8 w=84 l=30
X87 9good_0/8good_0/7good_0/6good_0/5good_0/4good_0/3good_0/2good_1/m1_1892_666# 9good_0/8good_0/7good_0/6good_0/5good_0/4good_0/3good_0/2good_1/Sw-1_2/li_126_470# 9good_0/8good_0/7good_0/6good_0/5good_0/4good_0/3good_0/m1_3532_3020# VSUBS sky130_fd_pr__nfet_01v8 w=84 l=30
R4 9good_0/8good_0/7good_0/6good_0/5good_0/4good_0/3good_0/2good_0/li_n184_1324# 9good_0/8good_0/7good_0/6good_0/5good_0/4good_0/3good_0/2good_1/li_n184_n588# sky130_fd_pr__res_generic_po1 w=66 l=342
R5 9good_0/8good_0/7good_0/6good_0/5good_0/4good_0/3good_0/2good_1/li_n188_368# 9good_0/8good_0/7good_0/6good_0/5good_0/4good_0/3good_0/2good_1/li_n188_700# sky130_fd_pr__res_generic_po1 w=66 l=342
R6 9good_0/8good_0/7good_0/6good_0/5good_0/4good_0/3good_0/2good_1/li_n188_700# 9good_0/8good_0/7good_0/6good_0/5good_0/4good_0/3good_0/2good_1/li_n184_1324# sky130_fd_pr__res_generic_po1 w=66 l=342
R7 9good_0/8good_0/7good_0/6good_0/5good_0/4good_0/3good_0/2good_1/li_n184_n588# 9good_0/8good_0/7good_0/6good_0/5good_0/4good_0/3good_0/2good_1/li_n188_368# sky130_fd_pr__res_generic_po1 w=66 l=342
X88 9good_0/8good_0/7good_0/6good_0/5good_0/4good_0/3good_1/Sw-1_0/li_29_719# D2 VSUBS VSUBS sky130_fd_pr__nfet_01v8 w=84 l=30
X89 9good_0/8good_0/7good_0/6good_0/5good_0/4good_0/3good_1/m1_3532_3020# 9good_0/8good_0/7good_0/6good_0/5good_0/4good_0/3good_1/Sw-1_0/li_29_719# 9good_0/8good_0/7good_0/6good_0/5good_0/4good_0/m1_3500_5610# 9good_0/8good_0/7good_0/6good_0/5good_0/4good_0/3good_1/m1_3532_3020# sky130_fd_pr__pfet_01v8 w=84 l=30
X90 9good_0/8good_0/7good_0/6good_0/5good_0/4good_0/m1_3500_5610# 9good_0/8good_0/7good_0/6good_0/5good_0/4good_0/3good_1/Sw-1_0/li_29_719# 9good_0/8good_0/7good_0/6good_0/5good_0/4good_0/3good_1/m1_3752_2110# VSUBS sky130_fd_pr__nfet_01v8 w=84 l=30
X91 9good_0/8good_0/7good_0/6good_0/5good_0/4good_0/3good_1/Sw-1_0/li_126_470# 9good_0/8good_0/7good_0/6good_0/5good_0/4good_0/3good_1/Sw-1_0/li_29_719# VSUBS VSUBS sky130_fd_pr__nfet_01v8 w=84 l=30
X92 VDD 9good_0/8good_0/7good_0/6good_0/5good_0/4good_0/3good_1/Sw-1_0/li_29_719# 9good_0/8good_0/7good_0/6good_0/5good_0/4good_0/3good_1/Sw-1_0/li_126_470# VDD sky130_fd_pr__pfet_01v8 w=84 l=30
X93 VDD D2 9good_0/8good_0/7good_0/6good_0/5good_0/4good_0/3good_1/Sw-1_0/li_29_719# VDD sky130_fd_pr__pfet_01v8 w=84 l=30
X94 9good_0/8good_0/7good_0/6good_0/5good_0/4good_0/m1_3500_5610# 9good_0/8good_0/7good_0/6good_0/5good_0/4good_0/3good_1/Sw-1_0/li_126_470# 9good_0/8good_0/7good_0/6good_0/5good_0/4good_0/3good_1/m1_3752_2110# 9good_0/8good_0/7good_0/6good_0/5good_0/4good_0/m1_3500_5610# sky130_fd_pr__pfet_01v8 w=84 l=30
X95 9good_0/8good_0/7good_0/6good_0/5good_0/4good_0/3good_1/m1_3532_3020# 9good_0/8good_0/7good_0/6good_0/5good_0/4good_0/3good_1/Sw-1_0/li_126_470# 9good_0/8good_0/7good_0/6good_0/5good_0/4good_0/m1_3500_5610# VSUBS sky130_fd_pr__nfet_01v8 w=84 l=30
X96 9good_0/8good_0/7good_0/6good_0/5good_0/4good_0/3good_1/2good_0/Sw-1_0/li_29_719# D0 VSUBS VSUBS sky130_fd_pr__nfet_01v8 w=84 l=30
X97 9good_0/8good_0/7good_0/6good_0/5good_0/4good_0/3good_1/2good_0/li_n188_700# 9good_0/8good_0/7good_0/6good_0/5good_0/4good_0/3good_1/2good_0/Sw-1_0/li_29_719# 9good_0/8good_0/7good_0/6good_0/5good_0/4good_0/3good_1/2good_0/m1_1892_666# 9good_0/8good_0/7good_0/6good_0/5good_0/4good_0/3good_1/2good_0/li_n188_700# sky130_fd_pr__pfet_01v8 w=84 l=30
X98 9good_0/8good_0/7good_0/6good_0/5good_0/4good_0/3good_1/2good_0/m1_1892_666# 9good_0/8good_0/7good_0/6good_0/5good_0/4good_0/3good_1/2good_0/Sw-1_0/li_29_719# 9good_0/8good_0/7good_0/6good_0/5good_0/4good_0/3good_1/2good_0/li_n188_368# VSUBS sky130_fd_pr__nfet_01v8 w=84 l=30
X99 9good_0/8good_0/7good_0/6good_0/5good_0/4good_0/3good_1/2good_0/Sw-1_0/li_126_470# 9good_0/8good_0/7good_0/6good_0/5good_0/4good_0/3good_1/2good_0/Sw-1_0/li_29_719# VSUBS VSUBS sky130_fd_pr__nfet_01v8 w=84 l=30
X100 VDD 9good_0/8good_0/7good_0/6good_0/5good_0/4good_0/3good_1/2good_0/Sw-1_0/li_29_719# 9good_0/8good_0/7good_0/6good_0/5good_0/4good_0/3good_1/2good_0/Sw-1_0/li_126_470# VDD sky130_fd_pr__pfet_01v8 w=84 l=30
X101 VDD D0 9good_0/8good_0/7good_0/6good_0/5good_0/4good_0/3good_1/2good_0/Sw-1_0/li_29_719# VDD sky130_fd_pr__pfet_01v8 w=84 l=30
X102 9good_0/8good_0/7good_0/6good_0/5good_0/4good_0/3good_1/2good_0/m1_1892_666# 9good_0/8good_0/7good_0/6good_0/5good_0/4good_0/3good_1/2good_0/Sw-1_0/li_126_470# 9good_0/8good_0/7good_0/6good_0/5good_0/4good_0/3good_1/2good_0/li_n188_368# 9good_0/8good_0/7good_0/6good_0/5good_0/4good_0/3good_1/2good_0/m1_1892_666# sky130_fd_pr__pfet_01v8 w=84 l=30
X103 9good_0/8good_0/7good_0/6good_0/5good_0/4good_0/3good_1/2good_0/li_n188_700# 9good_0/8good_0/7good_0/6good_0/5good_0/4good_0/3good_1/2good_0/Sw-1_0/li_126_470# 9good_0/8good_0/7good_0/6good_0/5good_0/4good_0/3good_1/2good_0/m1_1892_666# VSUBS sky130_fd_pr__nfet_01v8 w=84 l=30
X104 9good_0/8good_0/7good_0/6good_0/5good_0/4good_0/3good_1/2good_0/Sw-1_1/li_29_719# D0 VSUBS VSUBS sky130_fd_pr__nfet_01v8 w=84 l=30
X105 9good_0/8good_0/7good_0/6good_0/5good_0/4good_0/3good_1/2good_0/li_n184_n588# 9good_0/8good_0/7good_0/6good_0/5good_0/4good_0/3good_1/2good_0/Sw-1_1/li_29_719# 9good_0/8good_0/7good_0/6good_0/5good_0/4good_0/3good_1/2good_0/m1_1880_n536# 9good_0/8good_0/7good_0/6good_0/5good_0/4good_0/3good_1/2good_0/li_n184_n588# sky130_fd_pr__pfet_01v8 w=84 l=30
X106 9good_0/8good_0/7good_0/6good_0/5good_0/4good_0/3good_1/2good_0/m1_1880_n536# 9good_0/8good_0/7good_0/6good_0/5good_0/4good_0/3good_1/2good_0/Sw-1_1/li_29_719# 9good_0/8good_0/7good_0/6good_0/5good_0/4good_0/3good_0/2good_1/li_n184_1324# VSUBS sky130_fd_pr__nfet_01v8 w=84 l=30
X107 9good_0/8good_0/7good_0/6good_0/5good_0/4good_0/3good_1/2good_0/Sw-1_1/li_126_470# 9good_0/8good_0/7good_0/6good_0/5good_0/4good_0/3good_1/2good_0/Sw-1_1/li_29_719# VSUBS VSUBS sky130_fd_pr__nfet_01v8 w=84 l=30
X108 VDD 9good_0/8good_0/7good_0/6good_0/5good_0/4good_0/3good_1/2good_0/Sw-1_1/li_29_719# 9good_0/8good_0/7good_0/6good_0/5good_0/4good_0/3good_1/2good_0/Sw-1_1/li_126_470# VDD sky130_fd_pr__pfet_01v8 w=84 l=30
X109 VDD D0 9good_0/8good_0/7good_0/6good_0/5good_0/4good_0/3good_1/2good_0/Sw-1_1/li_29_719# VDD sky130_fd_pr__pfet_01v8 w=84 l=30
X110 9good_0/8good_0/7good_0/6good_0/5good_0/4good_0/3good_1/2good_0/m1_1880_n536# 9good_0/8good_0/7good_0/6good_0/5good_0/4good_0/3good_1/2good_0/Sw-1_1/li_126_470# 9good_0/8good_0/7good_0/6good_0/5good_0/4good_0/3good_0/2good_1/li_n184_1324# 9good_0/8good_0/7good_0/6good_0/5good_0/4good_0/3good_1/2good_0/m1_1880_n536# sky130_fd_pr__pfet_01v8 w=84 l=30
X111 9good_0/8good_0/7good_0/6good_0/5good_0/4good_0/3good_1/2good_0/li_n184_n588# 9good_0/8good_0/7good_0/6good_0/5good_0/4good_0/3good_1/2good_0/Sw-1_1/li_126_470# 9good_0/8good_0/7good_0/6good_0/5good_0/4good_0/3good_1/2good_0/m1_1880_n536# VSUBS sky130_fd_pr__nfet_01v8 w=84 l=30
X112 9good_0/8good_0/7good_0/6good_0/5good_0/4good_0/3good_1/2good_0/Sw-1_2/li_29_719# D1 VSUBS VSUBS sky130_fd_pr__nfet_01v8 w=84 l=30
X113 9good_0/8good_0/7good_0/6good_0/5good_0/4good_0/3good_1/2good_0/m1_1892_666# 9good_0/8good_0/7good_0/6good_0/5good_0/4good_0/3good_1/2good_0/Sw-1_2/li_29_719# 9good_0/8good_0/7good_0/6good_0/5good_0/4good_0/3good_1/m1_3752_2110# 9good_0/8good_0/7good_0/6good_0/5good_0/4good_0/3good_1/2good_0/m1_1892_666# sky130_fd_pr__pfet_01v8 w=84 l=30
X114 9good_0/8good_0/7good_0/6good_0/5good_0/4good_0/3good_1/m1_3752_2110# 9good_0/8good_0/7good_0/6good_0/5good_0/4good_0/3good_1/2good_0/Sw-1_2/li_29_719# 9good_0/8good_0/7good_0/6good_0/5good_0/4good_0/3good_1/2good_0/m1_1880_n536# VSUBS sky130_fd_pr__nfet_01v8 w=84 l=30
X115 9good_0/8good_0/7good_0/6good_0/5good_0/4good_0/3good_1/2good_0/Sw-1_2/li_126_470# 9good_0/8good_0/7good_0/6good_0/5good_0/4good_0/3good_1/2good_0/Sw-1_2/li_29_719# VSUBS VSUBS sky130_fd_pr__nfet_01v8 w=84 l=30
X116 VDD 9good_0/8good_0/7good_0/6good_0/5good_0/4good_0/3good_1/2good_0/Sw-1_2/li_29_719# 9good_0/8good_0/7good_0/6good_0/5good_0/4good_0/3good_1/2good_0/Sw-1_2/li_126_470# VDD sky130_fd_pr__pfet_01v8 w=84 l=30
X117 VDD D1 9good_0/8good_0/7good_0/6good_0/5good_0/4good_0/3good_1/2good_0/Sw-1_2/li_29_719# VDD sky130_fd_pr__pfet_01v8 w=84 l=30
X118 9good_0/8good_0/7good_0/6good_0/5good_0/4good_0/3good_1/m1_3752_2110# 9good_0/8good_0/7good_0/6good_0/5good_0/4good_0/3good_1/2good_0/Sw-1_2/li_126_470# 9good_0/8good_0/7good_0/6good_0/5good_0/4good_0/3good_1/2good_0/m1_1880_n536# 9good_0/8good_0/7good_0/6good_0/5good_0/4good_0/3good_1/m1_3752_2110# sky130_fd_pr__pfet_01v8 w=84 l=30
X119 9good_0/8good_0/7good_0/6good_0/5good_0/4good_0/3good_1/2good_0/m1_1892_666# 9good_0/8good_0/7good_0/6good_0/5good_0/4good_0/3good_1/2good_0/Sw-1_2/li_126_470# 9good_0/8good_0/7good_0/6good_0/5good_0/4good_0/3good_1/m1_3752_2110# VSUBS sky130_fd_pr__nfet_01v8 w=84 l=30
R8 9good_0/8good_0/7good_0/6good_0/5good_0/4good_0/3good_0/2good_1/li_n184_1324# 9good_0/8good_0/7good_0/6good_0/5good_0/4good_0/3good_1/2good_0/li_n184_n588# sky130_fd_pr__res_generic_po1 w=66 l=342
R9 9good_0/8good_0/7good_0/6good_0/5good_0/4good_0/3good_1/2good_0/li_n188_368# 9good_0/8good_0/7good_0/6good_0/5good_0/4good_0/3good_1/2good_0/li_n188_700# sky130_fd_pr__res_generic_po1 w=66 l=342
R10 9good_0/8good_0/7good_0/6good_0/5good_0/4good_0/3good_1/2good_0/li_n188_700# 9good_0/8good_0/7good_0/6good_0/5good_0/4good_0/3good_1/2good_0/li_n184_1324# sky130_fd_pr__res_generic_po1 w=66 l=342
R11 9good_0/8good_0/7good_0/6good_0/5good_0/4good_0/3good_1/2good_0/li_n184_n588# 9good_0/8good_0/7good_0/6good_0/5good_0/4good_0/3good_1/2good_0/li_n188_368# sky130_fd_pr__res_generic_po1 w=66 l=342
X120 9good_0/8good_0/7good_0/6good_0/5good_0/4good_0/3good_1/2good_1/Sw-1_0/li_29_719# D0 VSUBS VSUBS sky130_fd_pr__nfet_01v8 w=84 l=30